#P hf/6-31G* ! ASE formatted method and basis
scf(qc)
opt(tight,maxcycle=100)

Gaussian input prepared by ASE

0 1
O                -1.6884890000       -1.1038780000        0.4377130000
C                -1.2911590000        0.2270300000        0.3563410000
C                 0.0570340000        0.3686590000       -0.3171190000
O                 0.4676650000        1.6754060000       -0.4076340000
C                 1.1006640000       -0.4176290000        0.4481900000
O                 2.2897540000       -0.3065380000       -0.2817020000
H                -1.7685900000       -1.5117450000       -0.4559710000
H                -1.1415650000        0.5665370000        1.4229830000
H                -2.0698520000        0.8175580000       -0.1141640000
H                -0.0307530000       -0.1063500000       -1.3230740000
H                -0.1949130000        2.2623550000       -0.8146090000
H                 1.2095880000        0.0744960000        1.4335580000
H                 0.7472140000       -1.4561460000        0.5223020000
H                 2.3134020000       -1.0897540000       -0.9068150000


