#P hf/6-31G* ! ASE formatted method and basis
scf(qc)
opt(tight,maxcycle=100)

Gaussian input prepared by ASE

0 1
O                 1.7236790000       -1.2203160000        0.1841210000
C                 1.3639610000        0.1270600000        0.1340250000
C                -0.0415850000        0.2903250000       -0.4268920000
O                -0.3728860000        1.6200360000       -0.4665160000
C                -1.0074730000       -0.5519280000        0.3815790000
O                -2.2852780000       -0.4627840000       -0.1664300000
H                 2.4310440000       -1.2911280000        0.8918820000
H                 1.4166140000        0.6225290000        1.1241540000
H                 2.0429750000        0.6264060000       -0.6098520000
H                -0.1024090000       -0.1059140000       -1.4626560000
H                -0.7002570000        2.0005470000        0.3740450000
H                -0.6889770000       -1.6180580000        0.2288800000
H                -0.9762450000       -0.3404230000        1.4557860000
H                -2.8031630000        0.3036480000        0.1786610000


