#P hf/6-31G* ! ASE formatted method and basis
scf(qc)
opt(tight,maxcycle=100)

Gaussian input prepared by ASE

0 1
O                 2.3296290000        0.5553060000       -0.6983680000
C                 1.0954210000       -0.1634640000       -0.7502860000
C                 0.3102660000        0.0882590000        0.5395770000
O                 0.0348030000        1.4986530000        0.6175390000
C                -1.0091730000       -0.6820580000        0.5809710000
O                -1.8587870000       -0.2154330000       -0.4688080000
H                 2.0996060000        1.4362120000       -0.3408320000
H                 1.3232180000       -1.2254890000       -0.8788930000
H                 0.5510760000        0.1945740000       -1.6299050000
H                 0.9288950000       -0.1652170000        1.4068850000
H                -0.7344510000        1.6377400000        0.0273540000
H                -1.5260190000       -0.4925470000        1.5271330000
H                -0.8487700000       -1.7577450000        0.4619610000
H                -2.6957130000       -0.7087920000       -0.3943280000


