#P hf/6-31G* ! ASE formatted method and basis
scf(qc)
opt(tight,maxcycle=100)

Gaussian input prepared by ASE

0 1
O                 2.2141420000        0.2593380000        0.6191870000
C                 1.1685330000        0.2190970000       -0.2981300000
C                -0.0880320000       -0.3230510000        0.3724600000
O                 0.0954590000       -1.6006590000        0.8645480000
C                -1.2173250000       -0.2605220000       -0.6561300000
O                -1.3100350000        1.0691090000       -1.0800770000
H                 2.1494650000        1.0926540000        1.1164320000
H                 1.4739520000       -0.3974940000       -1.1532160000
H                 0.9553050000        1.2644600000       -0.5996470000
H                -0.3339350000        0.3419190000        1.2236840000
H                -0.4307300000       -1.7806340000        1.6897100000
H                -0.9300580000       -0.8481100000       -1.5524290000
H                -2.1586090000       -0.6509470000       -0.2593280000
H                -1.5881330000        1.6148420000       -0.2870630000


