#P hf/6-31G* ! ASE formatted method and basis
scf(qc)
opt(tight,maxcycle=100)

Gaussian input prepared by ASE

0 1
O                 2.1443400000        0.8932350000        0.5395500000
C                 1.0449630000        0.0634830000        0.7707890000
C                -0.0449100000        0.4959730000       -0.1695940000
O                 0.4495310000        0.3475310000       -1.4695950000
C                -1.2855990000       -0.3602040000       -0.0556260000
O                -1.8437950000       -0.2668870000        1.2217950000
H                 2.9776520000        0.4042520000        0.3807150000
H                 0.7479320000        0.0050420000        1.8164530000
H                 1.3688590000       -0.9588840000        0.4336310000
H                -0.3298630000        1.5486740000       -0.0378180000
H                 0.6314850000       -0.6411630000       -1.5653950000
H                -1.0559840000       -1.4279590000       -0.3033050000
H                -1.9875540000       -0.0066620000       -0.8457820000
H                -2.8170560000       -0.0964300000        1.1348380000


