#P hf/6-31G* ! ASE formatted method and basis
scf(qc)
opt(tight,maxcycle=100)

Gaussian input prepared by ASE

0 1
O                 2.3730320000       -0.1225860000       -0.0030260000
C                 1.1006350000       -0.2124680000        0.5265890000
C                 0.0276630000        0.1037650000       -0.5053790000
O                 0.2862060000        1.4234960000       -0.9294300000
C                -1.3308550000        0.1192380000        0.1300800000
O                -1.7337720000       -1.1179570000        0.6033200000
H                 2.3925770000       -0.4723900000       -0.9192650000
H                 0.9861000000       -1.2436490000        0.9260700000
H                 1.0390400000        0.5042480000        1.3645680000
H                 0.1113830000       -0.5641790000       -1.3704780000
H                 0.0416540000        1.9936100000       -0.1414130000
H                -1.2655980000        0.7933220000        1.0208190000
H                -2.0692930000        0.5480770000       -0.5692690000
H                -1.9587710000       -1.7525270000       -0.1331850000


